/*--------------------------------*- C++ -*----------------------------------*\
| =========                 |                                                 |
| \\      /  F ield         | OpenFOAM: The Open Source CFD Toolbox           |
|  \\    /   O peration     | Version:  2306                                  |
|   \\  /    A nd           | Website:  www.openfoam.com                      |
|    \\/     M anipulation  |                                                 |
\*---------------------------------------------------------------------------*/
FoamFile
{
    version     2.0;
    format      ascii;
    arch        "LSB;label=32;scalar=64";
    class       polyBoundaryMesh;
    location    "constant/polyMesh";
    object      boundary;
}
// * * * * * * * * * * * * * * * * * * * * * * * * * * * * * * * * * * * * * //

9
(
    top
    {
        type            patch;
        nFaces          50;
        startFace       3325;
    }
    bottom
    {
        type            patch;
        nFaces          0;
        startFace       3375;
    }
    streamwiseIn
    {
        type            cyclic;
        inGroups        1(cyclic);
        nFaces          0;
        startFace       3375;
        matchTolerance  0.0001;
        transform       unknown;
        neighbourPatch  streamwiseOut;
    }
    streamwiseOut
    {
        type            cyclic;
        inGroups        1(cyclic);
        nFaces          0;
        startFace       3375;
        matchTolerance  0.0001;
        transform       unknown;
        neighbourPatch  streamwiseIn;
    }
    front
    {
        type            cyclic;
        inGroups        1(cyclic);
        nFaces          125;
        startFace       3375;
        matchTolerance  0.0001;
        transform       unknown;
        neighbourPatch  back;
    }
    back
    {
        type            cyclic;
        inGroups        1(cyclic);
        nFaces          125;
        startFace       3500;
        matchTolerance  0.0001;
        transform       unknown;
        neighbourPatch  front;
    }
    procBoundary3to1
    {
        type            processor;
        inGroups        1(processor);
        nFaces          50;
        startFace       3625;
        matchTolerance  0.0001;
        transform       unknown;
        myProcNo        3;
        neighbProcNo    1;
    }
    procBoundary3to2
    {
        type            processor;
        inGroups        1(processor);
        nFaces          250;
        startFace       3675;
        matchTolerance  0.0001;
        transform       unknown;
        myProcNo        3;
        neighbProcNo    2;
    }
    procBoundary3to2throughstreamwiseOut
    {
        type            processorCyclic;
        inGroups        1(processorCyclic);
        nFaces          250;
        startFace       3925;
        matchTolerance  0.0001;
        transform       unknown;
        myProcNo        3;
        neighbProcNo    2;
        referPatch      streamwiseOut;
    }
)

// ************************************************************************* //
